<?xml version="1.0" encoding="UTF-8"?>
<!DOCTYPE network SYSTEM "http://www.matsim.org/files/dtd/network_v2.dtd">
<network>
	<nodes>
		<node id="0" x="1579440.94709698" y="-3922232.6985663"/>
		<node id="1" x="1579357.06654703" y="-3922210.48973944"/>
		<node id="2" x="1579286.88032608" y="-3922171.36832631"/>
		<node id="3" x="1579232.6099223" y="-3922157.12841332"/>
		<node id="4" x="1579206.67446035" y="-3922639.80884916"/>
		<node id="5" x="1579244.67226426" y="-3922579.90023128"/>
		<node id="6" x="1579237.59408773" y="-3922364.68847544"/>
		<node id="7" x="1578498.45908128" y="-3922341.12418991"/>
		<node id="8" x="1578525.95275652" y="-3922383.94927316"/>
		<node id="9" x="1578417.28689491" y="-3922511.46582228"/>
		<node id="10" x="1578337.86369472" y="-3922746.69313981"/>
		<node id="11" x="1579301.75215283" y="-3923158.53080537"/>
		<node id="12" x="1579255.49014568" y="-3923091.00696378"/>
		<node id="13" x="1579330.49954422" y="-3923160.74445345"/>
		<node id="14" x="1578789.30969689" y="-3922059.33484948"/>
		<node id="15" x="1578783.82261476" y="-3922093.36189083"/>
		<node id="16" x="1578548.63151705" y="-3922168.7295586"/>
		<node id="17" x="1578595.80556309" y="-3922173.91378964"/>
		<node id="18" x="1578541.60844059" y="-3922230.09980417"/>
		<node id="19" x="1579509.24515228" y="-3922356.83196718"/>
		<node id="20" x="1579521.40532198" y="-3922355.4340817"/>
		<node id="21" x="1579749.10742322" y="-3922889.92310251"/>
		<node id="22" x="1579466.96684343" y="-3922696.17817275"/>
		<node id="23" x="1579475.11508088" y="-3922682.83317896"/>
		<node id="24" x="1579640.09459912" y="-3922793.47587006"/>
		<node id="25" x="1578814.56796248" y="-3922753.96952459"/>
		<node id="26" x="1578940.0470513" y="-3922785.70500893"/>
		<node id="27" x="1579223.76391705" y="-3922696.28303787"/>
		<node id="28" x="1579140.56927407" y="-3922998.66178179"/>
		<node id="29" x="1578782.37947019" y="-3922706.9990679"/>
		<node id="30" x="1578743.46188244" y="-3922698.81918957"/>
		<node id="31" x="1578797.65080647" y="-3922337.94700242"/>
		<node id="32" x="1578810.03445109" y="-3922302.3528505"/>
		<node id="33" x="1578581.45135486" y="-3922470.73947502"/>
		<node id="34" x="1578588.40844903" y="-3922471.6310584"/>
		<node id="35" x="1578647.8366525" y="-3922359.53022959"/>
		<node id="36" x="1578640.68981462" y="-3922334.5215389"/>
		<node id="37" x="1578647.28132019" y="-3922394.24806289"/>
		<node id="38" x="1578719.50264409" y="-3922390.94389793"/>
		<node id="39" x="1578477.99866622" y="-3922859.13110445"/>
		<node id="40" x="1578572.45225913" y="-3922869.70380394"/>
		<node id="41" x="1578867.81480853" y="-3923132.37695932"/>
		<node id="42" x="1578905.67308192" y="-3922927.95531585"/>
		<node id="43" x="1579043.0292386" y="-3922358.77053713"/>
		<node id="44" x="1579003.32518287" y="-3922506.85630158"/>
		<node id="45" x="1578474.546802" y="-3921648.06506055"/>
		<node id="46" x="1578534.68045261" y="-3921646.4022216"/>
		<node id="47" x="1578493.67102367" y="-3921557.38889187"/>
		<node id="48" x="1578511.12554626" y="-3921645.99773421"/>
		<node id="49" x="1578508.73214056" y="-3921531.96486649"/>
		<node id="50" x="1579161.72374927" y="-3921700.84952836"/>
		<node id="51" x="1579189.86395214" y="-3921701.89835578"/>
		<node id="52" x="1579173.67526939" y="-3922363.69837161"/>
		<node id="53" x="1579182.19785622" y="-3922325.79034082"/>
		<node id="54" x="1579097.06894269" y="-3922142.32587522"/>
		<node id="55" x="1579090.66637387" y="-3922167.75094407"/>
		<node id="56" x="1578914.84649244" y="-3922353.97197497"/>
		<node id="57" x="1579022.14471446" y="-3922357.8752214"/>
		<node id="58" x="1578919.45123969" y="-3922303.82936908"/>
		<node id="59" x="1578932.12097257" y="-3922304.19402165"/>
		<node id="60" x="1579074.53934195" y="-3922232.05442898"/>
		<node id="61" x="1579071.82747791" y="-3922232.38241339"/>
		<node id="62" x="1579125.4688351" y="-3921720.59030557"/>
		<node id="63" x="1579093.34995753" y="-3921730.20898539"/>
		<node id="64" x="1579025.44813943" y="-3921857.50039312"/>
		<node id="65" x="1578888.72257249" y="-3922165.1962724"/>
		<node id="66" x="1578946.66628011" y="-3922193.5064413"/>
		<node id="67" x="1579757.5581841" y="-3922881.79910176"/>
		<node id="68" x="1579825.74726964" y="-3923011.44633307"/>
		<node id="69" x="1578999.98991811" y="-3922081.10107529"/>
		<node id="70" x="1578884.97934121" y="-3922051.42114786"/>
		<node id="71" x="1578881.73140788" y="-3921863.23703819"/>
		<node id="72" x="1578845.38394322" y="-3921947.0519922"/>
		<node id="73" x="1579161.15142818" y="-3922449.11469707"/>
		<node id="74" x="1578398.93410309" y="-3922839.49660286"/>
		<node id="75" x="1579509.04062118" y="-3922247.6976889"/>
		<node id="76" x="1579502.6497697" y="-3922279.97404825"/>
		<node id="77" x="1579462.77308529" y="-3922692.15849204"/>
		<node id="78" x="1579465.92504778" y="-3922354.15763104"/>
		<node id="79" x="1579102.39795429" y="-3922658.82963506"/>
		<node id="80" x="1579060.33934241" y="-3922830.87230766"/>
		<node id="81" x="1579028.62356413" y="-3922484.07939239"/>
		<node id="82" x="1579091.80767028" y="-3922446.02970854"/>
		<node id="83" x="1579092.94491391" y="-3922359.96868976"/>
		<node id="84" x="1579223.78675444" y="-3922510.5177222"/>
		<node id="85" x="1579165.8200407" y="-3922679.05300549"/>
		<node id="86" x="1579475.53383286" y="-3922352.59736973"/>
		<node id="87" x="1579349.66199577" y="-3922591.30738358"/>
		<node id="88" x="1579415.2242121" y="-3922646.90028212"/>
		<node id="89" x="1579336.52273716" y="-3922633.04553662"/>
		<node id="90" x="1579407.21689888" y="-3922371.6492942"/>
		<node id="91" x="1579440.63755353" y="-3922360.12815772"/>
		<node id="92" x="1579228.27244996" y="-3922248.53975187"/>
		<node id="93" x="1579262.25244536" y="-3922257.36596316"/>
		<node id="94" x="1579502.47927036" y="-3922235.911652"/>
		<node id="95" x="1579500.0666242" y="-3919968.51383118"/>
		<node id="96" x="1579093.04034302" y="-3922986.16402162"/>
		<node id="97" x="1579321.3757532" y="-3922501.33538526"/>
		<node id="98" x="1579311.27054696" y="-3922538.92513085"/>
		<node id="99" x="1579280.39162835" y="-3922491.02007716"/>
		<node id="100" x="1579537.44170988" y="-3919972.91835302"/>
		<node id="101" x="1578581.64520988" y="-3922644.21498803"/>
		<node id="102" x="1578638.90836375" y="-3922646.22304619"/>
		<node id="103" x="1579365.1209884" y="-3922149.08350547"/>
		<node id="104" x="1579606.00473443" y="-3921799.72617588"/>
		<node id="105" x="1578764.0359842" y="-3921937.60419662"/>
		<node id="106" x="1578716.67820722" y="-3921916.34473992"/>
		<node id="107" x="1578626.72500072" y="-3922268.15479438"/>
		<node id="108" x="1578667.47760634" y="-3922169.00764335"/>
		<node id="109" x="1578894.0140037" y="-3921824.33260546"/>
		<node id="110" x="1578855.4093843" y="-3921893.03454228"/>
		<node id="111" x="1578830.50997794" y="-3922496.58776825"/>
		<node id="112" x="1579786.79566783" y="-3922997.58878147"/>
		<node id="113" x="1579741.30455401" y="-3922897.25653074"/>
		<node id="114" x="1579685.66341999" y="-3923243.63007593"/>
		<node id="115" x="1579776.55508576" y="-3923164.99615536"/>
		<node id="116" x="1578875.62879048" y="-3921666.56337995"/>
		<node id="117" x="1579017.65498724" y="-3921544.10535067"/>
		<node id="118" x="1579004.69225134" y="-3921477.27582965"/>
		<node id="119" x="1578825.96648266" y="-3921600.58064216"/>
		<node id="120" x="1579133.46149614" y="-3921796.23596646"/>
		<node id="121" x="1579090.51948844" y="-3921780.08314484"/>
		<node id="122" x="1579035.2898746" y="-3921858.56692233"/>
		<node id="123" x="1578938.12888364" y="-3922357.49187889"/>
		<node id="124" x="1579005.13822862" y="-3922404.69399353"/>
		<node id="125" x="1579790.69706022" y="-3923040.050198"/>
		<node id="126" x="1578623.30365241" y="-3923039.96863871"/>
		<node id="127" x="1578590.98868687" y="-3923010.77935394"/>
		<node id="128" x="1578594.55103422" y="-3923038.60255196"/>
		<node id="129" x="1578594.01049559" y="-3923053.65336753"/>
		<node id="130" x="1578629.0622284" y="-3922873.94976948"/>
		<node id="131" x="1578699.53755463" y="-3922875.2724664"/>
		<node id="132" x="1578783.23906624" y="-3922891.39356196"/>
		<node id="133" x="1578760.33961637" y="-3922291.8640775"/>
		<node id="134" x="1578341.48639306" y="-3923224.23832375"/>
		<node id="135" x="1578406.01937066" y="-3922906.36411247"/>
		<node id="136" x="1578650.68855845" y="-3922304.70219737"/>
		<node id="137" x="1578700.35239915" y="-3922290.32679569"/>
		<node id="138" x="1578417.55897232" y="-3922876.01032348"/>
		<node id="139" x="1578416.40446941" y="-3922836.23396749"/>
		<node id="140" x="1578412.5229112" y="-3923017.24647202"/>
		<node id="141" x="1578418.96994106" y="-3922976.24498716"/>
		<node id="142" x="1578419.90762114" y="-3922923.03489125"/>
		<node id="143" x="1578404.82802836" y="-3923015.37342644"/>
		<node id="144" x="1578412.46151363" y="-3922974.2569303"/>
		<node id="145" x="1578414.80067193" y="-3922951.88016585"/>
		<node id="146" x="1578678.85699048" y="-3922257.78362648"/>
		<node id="147" x="1578682.89931302" y="-3922146.36195525"/>
		<node id="148" x="1578748.78453889" y="-3922039.60679544"/>
		<node id="149" x="1578836.53635586" y="-3922308.06473812"/>
		<node id="150" x="1579176.81649202" y="-3921297.58790495"/>
		<node id="151" x="1579136.02190061" y="-3921326.25906111"/>
		<node id="152" x="1579209.49950195" y="-3921313.2848272"/>
		<node id="153" x="1579260.09347219" y="-3921374.59698079"/>
		<node id="154" x="1578892.1076105" y="-3921563.75061719"/>
		<node id="155" x="1578892.03734675" y="-3921559.80937216"/>
		<node id="156" x="1578887.42716697" y="-3921525.8951393"/>
		<node id="157" x="1579653.84333494" y="-3922802.32131014"/>
		<node id="158" x="1579766.57744927" y="-3922869.88860473"/>
		<node id="159" x="1579011.06583521" y="-3922476.10219993"/>
		<node id="160" x="1578536.29917506" y="-3922426.67330857"/>
		<node id="161" x="1578581.35070521" y="-3922417.04159558"/>
		<node id="162" x="1578289.29231667" y="-3922857.57376623"/>
		<node id="163" x="1578330.5264418" y="-3922838.0039094"/>
		<node id="164" x="1579076.08835274" y="-3923055.84587794"/>
		<node id="165" x="1579111.03411314" y="-3923075.17458086"/>
		<node id="166" x="1579064.33151548" y="-3923104.21287067"/>
		<node id="167" x="1578695.85682121" y="-3921593.5931866"/>
		<node id="168" x="1578697.23076716" y="-3921562.5750154"/>
		<node id="169" x="1579743.4048609" y="-3922895.02890642"/>
		<node id="170" x="1579570.52458311" y="-3922781.12322667"/>
		<node id="171" x="1579626.74962741" y="-3922815.87238377"/>
		<node id="172" x="1579794.89147233" y="-3923034.15729615"/>
		<node id="173" x="1579554.8358355" y="-3922776.51019906"/>
		<node id="174" x="1579511.96397745" y="-3922754.2833901"/>
		<node id="175" x="1578898.98970408" y="-3921834.75245487"/>
		<node id="176" x="1578479.38380001" y="-3922827.08897508"/>
		<node id="177" x="1578520.51000498" y="-3922826.58402802"/>
		<node id="178" x="1578590.84662891" y="-3922227.58265217"/>
		<node id="179" x="1578641.290936" y="-3922270.87424053"/>
		<node id="180" x="1579133.28889853" y="-3921743.34175117"/>
		<node id="181" x="1579122.34630281" y="-3921709.534721"/>
		<node id="182" x="1578474.07843006" y="-3922996.51132407"/>
		<node id="183" x="1578468.54091896" y="-3923083.58195779"/>
		<node id="184" x="1579738.58063028" y="-3922900.2335292"/>
		<node id="185" x="1579706.08507942" y="-3922868.3206952"/>
		<node id="186" x="1579786.95443003" y="-3923041.04896612"/>
		<node id="187" x="1578899.38381909" y="-3922337.32890901"/>
		<node id="188" x="1578719.72779986" y="-3922331.24313414"/>
		<node id="189" x="1578719.17819086" y="-3922478.4755127"/>
		<node id="190" x="1579033.70828573" y="-3922070.58880136"/>
		<node id="191" x="1579071.74407148" y="-3921589.89384451"/>
		<node id="192" x="1579471.21557075" y="-3922718.60527088"/>
		<node id="193" x="1579440.70557681" y="-3922690.07460245"/>
		<node id="194" x="1579463.71582352" y="-3922211.56758899"/>
		<node id="195" x="1578795.17419372" y="-3922116.17656883"/>
		<node id="196" x="1578774.08363619" y="-3922150.29258455"/>
		<node id="197" x="1579224.83044662" y="-3922413.95177253"/>
		<node id="198" x="1579311.71256668" y="-3922367.78635014"/>
		<node id="199" x="1579196.32109137" y="-3922262.54721162"/>
		<node id="200" x="1579208.69095561" y="-3922211.96007089"/>
		<node id="201" x="1579676.11167137" y="-3922849.72029203"/>
		<node id="202" x="1579703.60307909" y="-3922872.9126451"/>
		<node id="203" x="1579798.78730641" y="-3923034.27117995"/>
		<node id="204" x="1579734.91427169" y="-3922904.18326001"/>
		<node id="205" x="1578736.88316352" y="-3922186.42150988"/>
		<node id="206" x="1578719.91364494" y="-3922281.53871902"/>
		<node id="207" x="1579078.46483704" y="-3922216.3787872"/>
		<node id="208" x="1579120.94164071" y="-3922278.91227975"/>
		<node id="209" x="1579024.62455741" y="-3922424.16381207"/>
		<node id="210" x="1579022.30836553" y="-3922423.7109923"/>
		<node id="211" x="1579478.65106038" y="-3922346.83440474"/>
		<node id="212" x="1578766.49677614" y="-3922146.55199923"/>
		<node id="213" x="1578997.46862887" y="-3921562.07327608"/>
		<node id="214" x="1579024.19507226" y="-3921583.29752357"/>
		<node id="215" x="1578805.90879232" y="-3921657.81546237"/>
		<node id="216" x="1578342.66073995" y="-3922631.66557763"/>
		<node id="217" x="1578485.68523066" y="-3922640.65224149"/>
		<node id="218" x="1578478.29496475" y="-3922854.28240343"/>
		<node id="219" x="1578567.1859462" y="-3922863.48733049"/>
		<node id="220" x="1578575.1356716" y="-3922643.91966537"/>
		<node id="221" x="1578581.71007743" y="-3922492.93928213"/>
		<node id="222" x="1578486.26292782" y="-3922615.48243297"/>
		<node id="223" x="1578566.69284768" y="-3922621.23833061"/>
		<node id="224" x="1578337.07928231" y="-3922838.99561737"/>
		<node id="225" x="1578792.51293669" y="-3922488.80197529"/>
		<node id="226" x="1578863.05404434" y="-3922544.28649867"/>
		<node id="227" x="1578872.88728801" y="-3922505.42274162"/>
		<node id="228" x="1578707.57001427" y="-3922691.13427699"/>
		<node id="229" x="1578596.00423966" y="-3922835.38042108"/>
		<node id="230" x="1578594.85011451" y="-3922871.40834422"/>
		<node id="231" x="1579231.85846005" y="-3921366.27331695"/>
		<node id="232" x="1579213.9897112" y="-3921389.87285614"/>
		<node id="233" x="1579537.52316207" y="-3920933.26027935"/>
		<node id="234" x="1578347.70743526" y="-3922523.18827523"/>
		<node id="235" x="1578286.69872841" y="-3922862.37334614"/>
		<node id="236" x="1578548.99362223" y="-3921499.3868729"/>
		<node id="237" x="1578555.47406976" y="-3921606.07502169"/>
		<node id="238" x="1578543.32404323" y="-3921627.7011612"/>
		<node id="239" x="1578540.64075254" y="-3921661.21200952"/>
		<node id="240" x="1578590.31677991" y="-3921634.35253745"/>
		<node id="241" x="1578557.7628983" y="-3921674.31829235"/>
		<node id="242" x="1578550.63229284" y="-3921668.81421392"/>
		<node id="243" x="1578588.35753638" y="-3921632.72386809"/>
		<node id="244" x="1578568.798705" y="-3921616.59775371"/>
		<node id="245" x="1578575.71060023" y="-3921572.08636867"/>
		<node id="246" x="1578611.89267494" y="-3921526.7621591"/>
		<node id="247" x="1578560.41417233" y="-3921676.45437454"/>
		<node id="248" x="1578518.17546726" y="-3922033.34355226"/>
		<node id="249" x="1578539.02687967" y="-3921758.86673349"/>
		<node id="250" x="1578492.2643124" y="-3922472.56498048"/>
		<node id="251" x="1578583.13790837" y="-3921506.36219548"/>
		<node id="252" x="1578650.35583835" y="-3921573.54794079"/>
		<node id="253" x="1578595.78519205" y="-3922180.67156608"/>
		<node id="254" x="1578614.93440529" y="-3921861.77637184"/>
		<node id="255" x="1578633.52463686" y="-3921638.86777838"/>
		<node id="256" x="1578581.85173947" y="-3921699.10975851"/>
		<node id="257" x="1578604.49684111" y="-3922008.50255874"/>
		<node id="258" x="1578645.9899824" y="-3922474.84124406"/>
		<node id="259" x="1578614.6145662" y="-3921592.73726026"/>
		<node id="260" x="1578990.64393211" y="-3921463.91305386"/>
		<node id="261" x="1578994.65667849" y="-3921477.00684145"/>
		<node id="262" x="1579402.02455142" y="-3922182.00307738"/>
		<node id="263" x="1579603.48866458" y="-3921864.22312763"/>
		<node id="264" x="1579567.33965807" y="-3921883.99949706"/>
		<node id="265" x="1579535.25396254" y="-3921896.07185435"/>
		<node id="266" x="1579489.53533341" y="-3922093.81369733"/>
		<node id="267" x="1579577.2101938" y="-3922012.33027896"/>
		<node id="268" x="1579362.88940142" y="-3923154.32706376"/>
		<node id="269" x="1579384.19886582" y="-3923148.15340169"/>
		<node id="270" x="1579779.62403091" y="-3922874.72798933"/>
		<node id="271" x="1579799.02284315" y="-3922856.5410531"/>
		<node id="272" x="1579865.97518988" y="-3922829.38420473"/>
		<node id="273" x="1579802.38405263" y="-3922852.78316933"/>
		<node id="274" x="1579423.30500832" y="-3923122.66919746"/>
		<node id="275" x="1579359.24769692" y="-3922191.96750652"/>
		<node id="276" x="1579303.80917343" y="-3922171.57412112"/>
		<node id="277" x="1579460.84605576" y="-3922145.35886858"/>
		<node id="278" x="1579416.22803725" y="-3922336.33697151"/>
		<node id="279" x="1578703.99212698" y="-3922768.96266529"/>
		<node id="280" x="1578633.55541006" y="-3922760.07159531"/>
		<node id="281" x="1578799.30858237" y="-3922777.52868001"/>
		<node id="282" x="1578652.74415668" y="-3922077.66478136"/>
		<node id="283" x="1578693.88757184" y="-3922069.36617204"/>
		<node id="284" x="1578683.91179961" y="-3921966.14903592"/>
		<node id="285" x="1578745.55149959" y="-3921991.31393904"/>
		<node id="286" x="1578690.35091132" y="-3921636.39373024"/>
		<node id="287" x="1578689.27331616" y="-3921644.62073812"/>
		<node id="288" x="1579139.70192779" y="-3922782.41075385"/>
		<node id="289" x="1579075.90708557" y="-3922763.81787885"/>
		<node id="290" x="1579012.92078639" y="-3922748.05444347"/>
		<node id="291" x="1579311.84681259" y="-3922723.77086993"/>
		<node id="292" x="1578956.57190114" y="-3922526.67690709"/>
		<node id="293" x="1578942.18106644" y="-3922567.59685325"/>
		<node id="294" x="1578984.8786666" y="-3922580.17417972"/>
		<node id="295" x="1578916.24407121" y="-3922516.31968074"/>
		<node id="296" x="1578905.41635036" y="-3922553.43141234"/>
		<node id="297" x="1578995.5910216" y="-3922536.68687988"/>
		<node id="298" x="1578882.78013251" y="-3922507.73255159"/>
		<node id="299" x="1579258.66820586" y="-3921533.95763247"/>
		<node id="300" x="1579173.30571356" y="-3921571.68985114"/>
		<node id="301" x="1579217.46593975" y="-3921679.00511905"/>
		<node id="302" x="1579214.47020181" y="-3921675.93039427"/>
		<node id="303" x="1578592.80483027" y="-3921708.90491869"/>
		<node id="304" x="1578568.89901825" y="-3922005.61470779"/>
		<node id="305" x="1578586.93668853" y="-3921704.3543469"/>
		<node id="306" x="1578666.72694532" y="-3921726.80640521"/>
		<node id="307" x="1578449.76209816" y="-3922867.37051999"/>
		<node id="308" x="1578822.88901872" y="-3922717.38096796"/>
		<node id="309" x="1578868.20113568" y="-3922732.55690062"/>
		<node id="310" x="1578937.20580633" y="-3922937.53518901"/>
		<node id="311" x="1578959.33677467" y="-3922866.80724186"/>
		<node id="312" x="1578828.23949045" y="-3921841.04291974"/>
		<node id="313" x="1579104.12795802" y="-3921389.53603217"/>
		<node id="314" x="1579010.09035889" y="-3921469.18751799"/>
		<node id="315" x="1578875.01052292" y="-3921791.09697772"/>
		<node id="316" x="1578784.2083241" y="-3921762.11433302"/>
		<node id="317" x="1578723.25334646" y="-3921762.86076978"/>
		<node id="318" x="1578834.94873554" y="-3921811.02692805"/>
		<node id="319" x="1579002.19943105" y="-3921458.34376294"/>
		<node id="320" x="1579118.79864147" y="-3921337.1506176"/>
		<node id="321" x="1578881.48831098" y="-3921825.34669065"/>
		<node id="322" x="1579585.95475157" y="-3920425.43076824"/>
		<node id="323" x="1579219.97695567" y="-3921694.56516769"/>
		<node id="324" x="1579216.66662493" y="-3921692.69450373"/>
		<node id="325" x="1578922.01551267" y="-3921815.5271683"/>
		<node id="326" x="1579055.76483685" y="-3921612.39524642"/>
		<node id="327" x="1578948.91374932" y="-3921821.33829845"/>
		<node id="328" x="1578860.56342304" y="-3922001.83571796"/>
		<node id="329" x="1578850.79041808" y="-3922015.64759712"/>
		<node id="330" x="1579038.2939126" y="-3921561.49483045"/>
		<node id="331" x="1579124.50069669" y="-3921320.38355623"/>
		<node id="332" x="1579203.74742343" y="-3921309.24002502"/>
		<node id="333" x="1579132.00770522" y="-3921337.79016281"/>
		<node id="334" x="1578669.11217643" y="-3921709.62669561"/>
		<node id="335" x="1578653.6343265" y="-3921977.11404118"/>
		<node id="336" x="1578630.15125159" y="-3922287.46069482"/>
		<node id="337" x="1579443.56743846" y="-3922381.00332657"/>
		<node id="338" x="1579485.20512993" y="-3922357.66160397"/>
		<node id="339" x="1579463.11433832" y="-3922376.30204771"/>
		<node id="340" x="1579102.3617979" y="-3921394.12636787"/>
		<node id="341" x="1578626.61694687" y="-3921706.07818571"/>
		<node id="342" x="1578794.47686161" y="-3921738.70328421"/>
		<node id="343" x="1578791.40078553" y="-3921937.59859346"/>
		<node id="344" x="1578759.21965459" y="-3921955.02821084"/>
		<node id="345" x="1578768.72417403" y="-3921980.59547594"/>
		<node id="346" x="1579401.36037789" y="-3922172.93448618"/>
		<node id="347" x="1579466.5826848" y="-3922194.54323347"/>
		<node id="348" x="1579472.02510223" y="-3922196.78584729"/>
		<node id="349" x="1578427.06823115" y="-3922839.21765019"/>
		<node id="350" x="1578429.47555261" y="-3922901.53140818"/>
		<node id="351" x="1578419.70019172" y="-3923055.9926111"/>
		<node id="352" x="1579367.73603436" y="-3923171.13409453"/>
		<node id="353" x="1579365.93966415" y="-3923181.13346811"/>
		<node id="354" x="1578643.91258072" y="-3922508.73689762"/>
		<node id="355" x="1578671.77678683" y="-3922647.79975271"/>
		<node id="356" x="1579830.66067956" y="-3922996.4302924"/>
		<node id="357" x="1578481.14576259" y="-3922758.65578412"/>
		<node id="358" x="1578443.8676121" y="-3922891.00613115"/>
		<node id="359" x="1579061.75219941" y="-3921868.35010604"/>
		<node id="360" x="1579097.12016344" y="-3921782.41831211"/>
		<node id="361" x="1579177.06225268" y="-3922458.52469127"/>
		<node id="362" x="1579004.45956529" y="-3922593.96566122"/>
		<node id="363" x="1578668.27141032" y="-3922764.35319325"/>
		<node id="364" x="1578628.63839053" y="-3922199.36455114"/>
		<node id="365" x="1578869.89549641" y="-3922105.59941412"/>
		<node id="366" x="1578765.48344519" y="-3922398.91605947"/>
		<node id="367" x="1578759.63627531" y="-3922430.5659371"/>
		<node id="368" x="1578881.68099849" y="-3922419.28065057"/>
		<node id="369" x="1578942.29489065" y="-3921833.76922768"/>
		<node id="370" x="1579093.17716436" y="-3921880.55467144"/>
		<node id="371" x="1579220.56124637" y="-3921711.43011569"/>
		<node id="372" x="1578698.20519401" y="-3921737.34648173"/>
		<node id="373" x="1579204.50261035" y="-3921803.68673588"/>
		<node id="374" x="1578361.28104655" y="-3923114.32723495"/>
		<node id="375" x="1578406.71666558" y="-3922749.0713566"/>
		<node id="376" x="1578406.77826673" y="-3922915.42348955"/>
		<node id="377" x="1578415.86206704" y="-3922923.4688822"/>
		<node id="378" x="1578830.23944661" y="-3922023.18532991"/>
		<node id="379" x="1579723.2535728" y="-3923057.77266736"/>
		<node id="380" x="1579622.72542496" y="-3923019.55482253"/>
		<node id="381" x="1579453.3419435" y="-3922657.11065786"/>
		<node id="382" x="1579187.92897423" y="-3922667.48703392"/>
		<node id="383" x="1579180.94027833" y="-3922683.27525854"/>
		<node id="384" x="1579468.37060113" y="-3922349.62748459"/>
		<node id="385" x="1579466.79008869" y="-3922204.16145839"/>
		<node id="386" x="1579432.42297925" y="-3922190.59229566"/>
		<node id="387" x="1579496.30265233" y="-3922337.7509388"/>
		<node id="388" x="1579504.68593378" y="-3922356.13670122"/>
		<node id="389" x="1579649.65412059" y="-3921903.43191824"/>
		<node id="390" x="1579479.99561501" y="-3922393.09695254"/>
		<node id="391" x="1579497.00069519" y="-3922367.94157607"/>
		<node id="392" x="1579451.69888145" y="-3922379.10576547"/>
		<node id="393" x="1579516.98444707" y="-3922363.84635358"/>
		<node id="394" x="1579351.70940655" y="-3922370.36962996"/>
		<node id="395" x="1578535.47679228" y="-3921697.68903729"/>
		<node id="396" x="1578549.40144946" y="-3921652.1165203"/>
		<node id="397" x="1578755.02526328" y="-3923118.55118829"/>
		<node id="398" x="1578255.73624631" y="-3922949.4946563"/>
		<node id="399" x="1578350.12240169" y="-3923008.57290875"/>
		<node id="400" x="1578325.734125" y="-3923054.91077156"/>
		<node id="401" x="1579132.5551673" y="-3921308.59614089"/>
		<node id="402" x="1579140.19262717" y="-3921334.42956981"/>
		<node id="403" x="1578712.8884884" y="-3922574.77509952"/>
		<node id="404" x="1578709.66232501" y="-3922649.37723053"/>
		<node id="405" x="1579279.62895454" y="-3922572.73363809"/>
		<node id="406" x="1579261.21154885" y="-3922553.33261155"/>
		<node id="407" x="1579127.22825187" y="-3922832.47186112"/>
		<node id="408" x="1579215.88847158" y="-3922854.34721408"/>
		<node id="409" x="1579327.94399372" y="-3922308.33107852"/>
		<node id="410" x="1579296.96618079" y="-3923210.37575984"/>
		<node id="411" x="1579025.94212483" y="-3922089.18787825"/>
		<node id="412" x="1579622.41857333" y="-3921805.96485202"/>
		<node id="413" x="1579712.89729469" y="-3921842.88434673"/>
		<node id="414" x="1579404.44257465" y="-3922661.28570582"/>
		<node id="415" x="1579325.48741068" y="-3922675.6306067"/>
		<node id="416" x="1578623.50849325" y="-3921758.05234879"/>
		<node id="417" x="1578588.37254161" y="-3921755.71821283"/>
		<node id="418" x="1578618.049748" y="-3921824.79426846"/>
		<node id="419" x="1578583.45391089" y="-3921821.64351781"/>
		<node id="420" x="1578862.51556883" y="-3921635.28662698"/>
		<node id="421" x="1578955.20344995" y="-3921558.26574282"/>
		<node id="422" x="1578897.96070138" y="-3921607.3921771"/>
		<node id="423" x="1578918.0132252" y="-3921630.99340906"/>
		<node id="424" x="1578902.73855659" y="-3921671.1115273"/>
		<node id="425" x="1578889.43626929" y="-3921655.10060423"/>
		<node id="426" x="1578621.20717822" y="-3923115.40654125"/>
		<node id="427" x="1578891.61890003" y="-3922452.08079977"/>
		<node id="428" x="1578876.51499322" y="-3922449.08639437"/>
		<node id="429" x="1579188.8917177" y="-3922296.02821465"/>
		<node id="430" x="1579088.63107866" y="-3922175.91289079"/>
		<node id="431" x="1579231.45516139" y="-3922249.31250651"/>
		<node id="432" x="1579214.56194492" y="-3922324.09129619"/>
		<node id="433" x="1579245.10783176" y="-3922331.74254686"/>
		<node id="434" x="1579554.99368497" y="-3922231.67827902"/>
		<node id="435" x="1579545.4029666" y="-3922247.39712697"/>
		<node id="436" x="1579474.38095875" y="-3922090.91185499"/>
		<node id="437" x="1579531.9038569" y="-3922144.24928473"/>
		<node id="438" x="1579569.24281731" y="-3922162.68348817"/>
		<node id="439" x="1579665.00781076" y="-3922086.41446598"/>
		<node id="440" x="1579532.61494843" y="-3921916.90319385"/>
		<node id="441" x="1579520.31511983" y="-3921950.79288812"/>
		<node id="442" x="1579499.90004859" y="-3922022.18975468"/>
		<node id="443" x="1579476.46861697" y="-3922081.83274438"/>
		<node id="444" x="1579488.28975847" y="-3923138.27635462"/>
		<node id="445" x="1579465.45235973" y="-3923151.55689574"/>
		<node id="446" x="1579564.96853712" y="-3922111.11667084"/>
		<node id="447" x="1579551.15048027" y="-3922120.36089641"/>
		<node id="448" x="1578862.82224697" y="-3921855.68665974"/>
		<node id="449" x="1578696.07595433" y="-3922193.56339344"/>
		<node id="450" x="1578814.35329726" y="-3922017.23207293"/>
		<node id="451" x="1579002.25855982" y="-3922072.45895335"/>
		<node id="452" x="1579042.45639991" y="-3921522.51880584"/>
		<node id="453" x="1579017.40752337" y="-3921495.25524774"/>
		<node id="454" x="1579813.35260638" y="-3923032.00234432"/>
		<node id="455" x="1579049.71091502" y="-3923154.01189393"/>
		<node id="456" x="1578690.86652356" y="-3923102.95067767"/>
		<node id="457" x="1579394.33938557" y="-3922421.59847563"/>
		<node id="458" x="1579397.36285504" y="-3922409.84154547"/>
		<node id="459" x="1579072.97274306" y="-3921723.87048403"/>
		<node id="460" x="1578313.26065429" y="-3922374.20994584"/>
		<node id="461" x="1578456.54844837" y="-3922420.76631533"/>
		<node id="462" x="1578462.3567926" y="-3922250.98102809"/>
		<node id="463" x="1578458.03910684" y="-3922354.70212127"/>
		<node id="464" x="1578357.99306136" y="-3922297.81852617"/>
		<node id="465" x="1578458.06779176" y="-3922360.56451784"/>
		<node id="466" x="1578366.75146263" y="-3922249.13914248"/>
		<node id="467" x="1578349.55858638" y="-3922513.99843462"/>
		<node id="468" x="1578316.54066647" y="-3922277.47409048"/>
		<node id="469" x="1578307.17167956" y="-3922510.83319901"/>
		<node id="470" x="1578923.51113589" y="-3921875.95450693"/>
		<node id="471" x="1578917.76961326" y="-3922032.60560379"/>
		<node id="472" x="1578312.26338344" y="-3922750.29513304"/>
		<node id="473" x="1578293.79805356" y="-3922751.40494122"/>
		<node id="474" x="1578292.40515533" y="-3922797.26795019"/>
		<node id="475" x="1578311.41818408" y="-3922797.98222449"/>
		<node id="476" x="1578316.34026625" y="-3922629.49925237"/>
		<node id="477" x="1578297.5071651" y="-3922629.5003264"/>
		<node id="478" x="1578314.04172189" y="-3922690.841453"/>
		<node id="479" x="1578295.66510607" y="-3922690.09233653"/>
		<node id="480" x="1578331.55746378" y="-3922856.75724993"/>
		<node id="481" x="1578372.03678242" y="-3922843.40985666"/>
		<node id="482" x="1578335.03810042" y="-3922836.07479246"/>
		<node id="483" x="1578324.39585119" y="-3922842.91772962"/>
		<node id="484" x="1578735.5446271" y="-3922286.64370477"/>